.subckt gain in out k=1
E1 out 0 in 0 {K}
.ends gain